<NUMBER OF ZONES> 4
<TOTAL OD FLOW> 15000
<END OF METADATA>


Origin 	1 
    3 :  5000;
Origin 	2 
    4 :  10000;